function mpc =case118_cost_R_D_r
%% %%%%%%%%%%%%%%%%%%%%%%%%%%%%%%%%%%%%%%%%%%%%%%%%%%%%%%%%%%%%%%%%%%%%%%%%%%%%%%%%%%%%%%%%%%%%%%%
% Scenario with dispatchable generation and allowing shunt compensation in the load nodes
%% %%%%%%%%%%%%%%%%%%%%%%%%%%%%%%%%%%%%%%%%%%%%%%%%%%%%%%%%%%%%%%%%%%%%%%%%%%%%%%%%%%%%%%%%%%%%%%%


%CASE118    Power flow data for IEEE 118 bus test case.
%   Please see CASEFORMAT for details on the case file format.
%   This data was converted from IEEE Common Data Format
%   (ieee118cdf.txt) on 15-Oct-2014 by cdf2matp, rev. 2393
%   See end of file for warnings generated during conversion.
%
%   Converted from IEEE CDF file from:
%       http://www.ee.washington.edu/research/pstca/
%   With baseKV data take from the PSAP format file from the same site,
%   added manually on 10-Mar-2006.
% 
%   08/25/93 UW ARCHIVE           100.0  1961 W IEEE 118 Bus Test Case

%   MATPOWER
%   $Id: case118.m 2394 2014-10-15 20:39:39Z ray $

%% MATPOWER Case Format : Version 2
mpc.version = '2';

%%-----  Power Flow Data  -----%%
%% system MVA base
mpc.baseMVA = 100;

%% bus data
%  bus_i type Pd      Qd   Gs  Bs area	    Vm	        Va     baseKV	   zone	    Vmax	Vmi
mpc.bus= [
	1	1	  87	  46	 0	0	1	   0.95661	 -10.613	 138	    1	    1.05	0.95;
	2	1	  34	  15	 0	0	1	   0.97187	 -9.492	     138	    1	    1.05	0.95;
	3	1	  67	  17	 0	0	1	   0.96838	 -9.954	     138	    1	    1.05	0.95;
	4	2	  51	  20	 0	0	1	   0.998	 -7.46	     138	    1	    1.05	0.95;
	5	1	  0	      0	     0	0	1	   1.0127	 -7.084	     138	    1	    1.05	0.95;
    6	2	  89	  38	 0	0	1	   0.99	     -8.363	     138	    1	    1.05	0.95;
	7	1	  32	  3	     0	0	1	   0.98922	 -8.431      138	    1	    1.05	0.95;
	8	2	  0	      0	     0	0	1	   1.015	 -3.846	     345	    1	    1.05	0.95;  
	9	1	  0	      0	     0	0	1	   1.04908	  0.03	     345	    1	    1.05	0.95;
	10	2	  0	      0	     0	0	1	   1.05	      4.161      345	    1	    1.05	0.95;
	11	1	  119	  39	 0	0	1	   0.98534	 -8.461	     138	    1	    1.05	0.95;
	12	2	  80	  17	 0	0	1	   0.99	     -8.17	     138	    1	    1.05	0.95;
	13	1	  58	  27	 0	0	1	   0.9685	 -9.379	     138	    1	    1.05	0.95;
	14	1	  24	  2	     0	0	1	   0.98362	 -8.574	     138	    1	    1.05	0.95;
	15	2	  154	  51	 0	0	1	   0.97	     -7.991	     138	    1	    1.05	0.95;
	16	1	  43	  17	 0	0	1	   0.98353	 -8.223	     138	    1	    1.05	0.95;
	17	1	  19	  5	     0	0	1	   0.99422	 -5.88	     138	    1	    1.05	0.95;
	18	2	  102	  58	 0	0	1	   0.973	 -6.782	     138	    1	    1.05	0.95;
	19	2	  77	  58	 0	0	1	   0.96522	 -7.809	     138	    1	    1.05	0.95;
	20	1	  31	  5	     0	0	1	   0.96208	 -8.157      138	    1	    1.05	0.95;
	21	1	  24	  14	 0	0	1	   0.96385	 -7.473	     138	    1	    1.05	0.95;
	22	1	  17	  9	     0	0	1	   0.97522	 -5.948	     138	    1	    1.05	0.95;
	23	1	  12	  5      0	0	1	   1.00268	 -2.651   	 138	    1	    1.05	0.95;
	24	2	  0       0 	 0	0	1	   0.992	 -3.982	     138	    1	    1.05	0.95;
	25	2	  0	      0	     0	0	1	   1.05	      3.201	     138	    1	    1.05	0.95;
	26	2	  0	      0	     0	0	1	   1.015	  4.482	     345	    1	    1.05	0.95;
	27	2	  106	  22	 0	0	1	   0.968	 -5.956	     138	    1	    1.05	0.95;
	28	1	  29	  12	 0	0	1	   0.96147	 -6.839	     138	    1	    1.05	0.95;
	29	1	  41	  7	     0	0	1	   0.96292	 -6.891	     138	    1	    1.05	0.95;
	30	1	  0	      0	     0	0	1	   0.99153	 -3.546      345	    1	    1.05	0.95;
	31	2	  73	  46	 0	0	1	   0.967	 -6.439	     138	    1	    1.05	0.95;
	32	2	  101	  39	 0	0	1	   0.96872	 -5.386	     138	    1	    1.05	0.95;
	33	1	  39	  15	 0	0	1	   0.97367	 -8.739	     138	    2	    1.05	0.95;
	34	2	  101	  44	 0	0	1	   0.991	 -7.992	     138	    2	    1.05	0.95;
	35	1	  56	  15	 0	0	1	   0.98723	 -7.963	     138	    2	    1.05	0.95;
	36	2	  53	  29	 0	0	1	   0.98693	 -7.815	     138	    2	    1.05	0.95;
	37	1	  0	      0	     0	0	1	   0.99643	 -7.776	     138	    2	    1.05	0.95;
	38	1	  0	      0	     0	0	1	   0.97176	 -5.037	     345	    2	    1.05	0.95;
	39	1	  46	  19	 0	0	1	   0.97263	 -9.578	     138	    2	    1.05	0.95;
	40	2	  34	  39	 0	0	1	   0.97	     -9.742	     138	    2	    1.05	0.95;
	41	1	  63	  17	 0	0	1	   0.96673	 -9.956	     138	    2	    1.05	0.95;
	42	2	  63	  39	 0	0	1	   0.985	 -7.725	     138	    2	    1.05	0.95;
	43	1	  31	  12     0	0	1	   0.98352	 -8.976	     138	    2	    1.05	0.95;
	44	1	  27	  14     0	0	1	   0.98913	 -7.885	     138	    2	    1.05	0.95;
	45	1	  90	  38	 0	0	1	   0.98982	 -6.566	     138	    2	    1.05	0.95;
	46	2	  48	  17	 0	0	1	   1.005	 -3.151	     138	    2	    1.05	0.95;
	47	1	  58	  0	     0	0	1	   1.01882	 -3.482	     138	    2	    1.05	0.95;
	48	1	  34	  19	 0	0	1	   1.02103	 -3.685	     138	    2	    1.05	0.95;
	49	2	  148	  51	 0	0	1	   1.025	 -3.205	     138	    2	    1.05	0.95;
	50	1	  29	  7	     0	0	1	   1.00272	 -4.259	     138	    2	    1.05	0.95;
	51	1	  29	  14     0	0	1	   0.96993	 -5.58	     138	    2	    1.05	0.95;
	52	1	  31	  9	     0	0	1	   0.95996	 -6.167	     138	    2	    1.05	0.95;
	53	1	  39	  19	 0	0	1	   0.94746	 -6.142	     138	    2	    1.05	0.95;
	54	2	  193	  55	 0	0	1	   0.955	 -4.492	     138	    2	    1.05	0.95;
	55	2	  107	  38	 0	0	1	   0.95542	 -4.539	     138	    2	    1.05	0.95;
	56	2	  143	  31	 0	0	1	   0.95671	 -4.744	     138	    2	    1.05	0.95;
	57	1	  20	  5	     0	0	1	   0.97334	 -4.939	     138	    2	    1.05	0.95;
	58	1	  20	  5	     0	0	1	   0.96197	 -5.522	     138	    2	    1.05	0.95;
	59	2	  473	  193	 0	0	1	   0.985	 -5.118	     138	    2	    1.05	0.95;
	60	1	  113	  5	     0	0	1	   0.99328	 -3.126	     138	    2	    1.05	0.95;
	61	2	  0	      0	     0	0	1	   0.995	 -2.397	     138	    2	    1.05	0.95;
	62	2	  131	  24	 0	0	1	   0.998	 -2.859	     138	    2	    1.05	0.95;
	63	1	  0	      0	     0	0	1	   0.97098	 -3.138	     345	    2	    1.05	0.95;
	64	1	  0	      0	     0	0	1	   0.98518	 -2.132	     345	    2	    1.05	0.95;
	65	2	  0	      0	     0	0	1	   1.005	 -0.354	     345	    2	    1.05	0.95;
	66	2	  67	  31	 0	0	1	   1.05	     -1.199	     138	    2	    1.05	0.95;
	67	1	  48	  12	 0	0	1	   1.02022	 -2.756	     138	    2	    1.05	0.95;
	68	1	  0	      0	     0	0	1	   1.00291	 -0.56	     345	    2	    1.05	0.95;
	69	3	  0	      0	     0	0	1	   1.035	  0	         138	    2	    1.05	0.95;
	70	2	  113	  34	 0	0	1	   0.98493	 -5.176	     138	    1	    1.05	0.95;
	71	1	  0	      0	     0	0	1	   0.98685	 -5.998	     138	    1	    1.05	0.95;
	72	2	  0	      0	     0	0	1	   0.98	     -5.29	     138	    1	    1.05	0.95;
	73	2	  0	      0	     0	0	1	   0.991	 -7.175	     138	    1	    1.05	0.95;
	74	2	  116	  46	 0	0	1	   0.958	 -6.439	     138	    1	    1.05	0.95;
	75	1	  80	  19	 0	0	1	   0.97388	 -5.419	     138	    1	    1.05	0.95;
	76	2	  116	  61	 0	0	1	   0.943	 -5.21	     138	    2	    1.05	0.95;
	77	2	  104	  48	 0	0	1	   1.006	 -3.226	     138	    2	    1.05	0.95;
	78	1	  121	  44	 0	0	1	   1.01258	 -3.735	     138	    2	    1.05	0.95;
	79	1	  67	  55	 0	0	1	   1.01625	 -3.86	     138	    2	    1.05	0.95;
	80	2	  222	  44	 0	0	1	   1.04	     -2.803	     138	    2	    1.05	0.95;
	81	1	  0	      0	     0	0	1	   0.99518	 -1.386	     345	    2	    1.05	0.95;
	82	2	  92	  46	 0	0	1	   1	     -4.327	     138	    3	    1.05	0.95;
	83	1	  34	  17	 0	0	1	   0.99536	 -4.25	     138	    3	    1.05	0.95;
	84	1	  19	  12	 0	0	1	   0.98687	 -3.499	     138	    3	    1.05	0.95;
	85	2	  41	  26	 0	0	1	   0.985	 -2.81	     138	    3	    1.05	0.95;
	86	1	  36	  17	 0	0	1	   0.9927	 -0.458	     138	    3	    1.05	0.95;
	87	2	  0	      0	     0	0	1	   1.015	  5.694	     161	    3	    1.05	0.95;
	88	1	  82	  17	 0	0	1	   0.99121	 -3.477	     138	    3	    1.05	0.95;
	89	2	  0       0	     0	0	1	   1.005	 -2.031	     138	    3	    1.05	0.95;
	90	2	  133	  72	 0	0	1	   0.985	 -5.733	     138	    3	    1.05	0.95;
	91	2	  0	      0	     0	0	1	   0.98	     -5.934	     138	    3	    1.05	0.95;
	92	2	  111	  17	 0	0	1	   0.99	     -2.84	     138	    3	    1.05	0.95;
	93	1	  20	  12     0	0	1	   0.99583	 -3.729	     138	    3	    1.05	0.95;
	94	1	  51	  27	 0	0	1	   0.99686	 -4.058   	 138	    3	    1.05	0.95;
	95	1	  72	  53	 0	0	1	   0.98761	 -4.74	     138	    3	    1.05	0.95;
	96	1	  65	  26	 0	0	1	   0.99965	 -4.556	     138	    3	    1.05	0.95;
	97	1	  26	  15     0	0	1	   1.01493	 -4.031	     138	    2	    1.05	0.95;
	98	1	  58	  14     0	0	1	   1.02353	 -3.955	     138	    2	    1.05	0.95;
	99	2	  0 	  0	     0	0	1	   1.01	     -4.436	     138	    2	    1.05	0.95;
	100	2	  63	  31	 0	0	1	   1.017	 -2.644	     138	    3	    1.05	0.95;
	101	1	  38	  26	 0	0	1	   0.99798	 -3.587	     138	    3	    1.05	0.95;
	102	1 	  9	      5 	 0	0	1	   1.00002	 -3.191	     138	    3	    1.05	0.95;
	103	2	  39	  27	 0	0	1	   1.01	     -2.374	     138	    3	    1.05	0.95;
	104	2	  65	  43	 0	0	1	   0.971	 -2.091	     138	    3	    1.05	0.95;
	105	2	  53	  44	 0	0	1	   0.999412	 -1.861	     138	    3	    1.05	0.95;
	106	1	  73	  27	 0	0	1	   0.98175	 -3.146	     138	    3	    1.05	0.95;
	107	2	  48	  20	 0	0	1	   0.952	 -3.487	     138	    3	    1.05	0.95;
	108	1	  3	      2 	 0	0	1	   0.98403	 -0.773	     138	    3	    1.05	0.95;
	109	1	  14	  5	     0	0	1	   0.98011	 -0.288	     138	    3	    1.05	0.95;
	110	2	  67	  51	 0	0	1	   0.97379	  1.349	     138	    3	    1.05	0.95;
	111	2	  0	      0	     0	0	1	   0.98	      3.736	     138	    3	    1.05	0.95;
	112	2	  43	  22	 0	0	1	   0.975	  2.639	     138	    3	    1.05	0.95;
	113	2	  0	      0	     0	0	1	   0.993	 -4.632	     138	    1	    1.05	0.95;
	114	1	  14	  5      0	0	1	   0.96343	 -6.185	     138	    1	    1.05	0.95;
	115	1	  38	  12 	 0	0	1	   0.96296	 -6.273	     138	    1	    1.05	0.95;
	116	2	  0	      0	     0 	0	1	   1.005	 -0.519	     138	    2	    1.05	0.95;
	117	1	  34      14	 0	0	1	   0.98241	 -8.213	     138	    1	    1.05	0.95;
	118	1	  56	  26	 0	0	1	   0.95815	 -5.778	     138	    2	    1.05	0.95;
];

%% generator data
%	bus	Pg	    Qg	    Qmax   Qmin	       Vg	   mBase status Pmax	Pmin	Pc1	Pc2	Qc1min	Qc1max	Qc2min	Qc2max	ramp_agc	ramp_10	ramp_30	ramp_q	apf
mpc.gen= [
    1	0	    0	    1000     0	     0.95661    100	    1	1000    0	    0	0	0	0	0	0	0	0	0	0	0;
	1	0	    0	    0	    -1000    0.95661    100	    1	0	    0	    0	0	0	0	0	0	0	0	0	0	0;
	2	0	    0	    1000     0	     0.97187    100	    1	1000    0	    0	0	0	0	0	0	0	0	0	0	0;
	2	0	    0	    0	    -1000    0.97187    100	    1	0	    0	    0	0	0	0	0	0	0	0	0	0	0;
    3	0	    0	    1000     0	     0.96838    100	    1	1000    0	    0	0	0	0	0	0	0	0	0	0	0;
	3	0	    0	    0	    -1000    0.96838    100	    1	0	    0	    0	0	0	0	0	0	0	0	0	0	0;
	4	5	   -5.74    300	    -300     0.998	    100 	1	5	    5	    0	0	0	0	0	0	0	0	0	0	0;%*****
	5	0	    0	    1000     0	     1.00127    100	    1	1000    0	    0	0	0	0	0	0	0	0	0	0	0;
	5	0	    0	    0	    -1000    1.00127    100	    1	0	    0	    0	0	0	0	0	0	0	0	0	0	0;
	6	5	    28.09   50	    -13      0.99	    100 	1	30	    5   	0	0	0	0	0	0	0	0	0	0	0;
	7	0	    0	    1000     0	     0.98922    100	    1	1000    0	    0	0	0	0	0	0	0	0	0	0	0;
	7	0	    0	    0	    -1000    0.98922    100	    1	0	    0	    0	0	0	0	0	0	0	0	0	0	0;
	8	5	    99.18   300	    -300     1.015	    100 	1	30	    5   	0	0	0	0	0	0	0	0	0	0	0;
	9	0	    0	    1000     0	     1.04908    100	    1	1000    0	    0	0	0	0	0	0	0	0	0	0	0;
	9	0	    0	    0	    -1000    1.04908    100	    1	0	    0	    0	0	0	0	0	0	0	0	0	0	0;
	10	250	   -51.04   200	    -147     1.05	    100 	1	250	    250 	0	0	0	0	0	0	0	0	0	0	0;%*****
	11	0	    0	    1000     0	     0.98534    100	    1	1000    0	    0	0	0	0	0	0	0	0	0	0	0;
	11	0	    0	    0	    -1000    0.98534    100	    1	0	    0	    0	0	0	0	0	0	0	0	0	0	0;
	12	152.46  105.89  120	    -35      0.99	    100 	1	300     100 	0	0	0	0	0	0	0	0	0	0	0;
	13	0	    0	    1000     0	     0.9685     100	    1	1000    0	    0	0	0	0	0	0	0	0	0	0	0;
	13	0	    0	    0	    -1000    0.9685	    100	    1	0	    0	    0	0	0	0	0	0	0	0	0	0	0;
	14	0	    0	    1000     0	     0.98362    100	    1	1000    0	    0	0	0	0	0	0	0	0	0	0	0;
	14	0	    0	    0	    -1000    0.98362    100	    1	0	    0	    0	0	0	0	0	0	0	0	0	0	0;
	15	10	    22.94   30	    -10      0.97	    100 	1	30	    10   	0	0	0	0	0	0	0	0	0	0	0;
	16	0	    0	    1000     0	     0.98353    100	    1	1000    0	    0	0	0	0	0	0	0	0	0	0	0;
	16	0	    0	    0	    -1000    0.98353    100	    1	0	    0	    0	0	0	0	0	0	0	0	0	0	0;
	17	0	    0	    1000     0	     0.99422    100	    1	1000    0	    0	0	0	0	0	0	0	0	0	0	0;
	17	0	    0	    0	    -1000    0.99422    100	    1	0	    0	    0	0	0	0	0	0	0	0	0	0	0;
	18	100	    36.39   50	    -16      0.973	    100 	1	80	    80   	0	0	0	0	0	0	0	0	0	0	0;%*****
	19	5	    3.7	    24	    -8	     0.96522	100 	1	30	    5   	0	0	0	0	0	0	0	0	0	0	0;
	20	0	    0	    1000     0	     0.96208    100	    1	1000    0	    0	0	0	0	0	0	0	0	0	0	0;
	20	0	    0	    0	    -1000    0.96208    100	    1	0	    0	    0	0	0	0	0	0	0	0	0	0	0;
	21	0	    0	    1000     0	     0.96385    100	    1	1000    0	    0	0	0	0	0	0	0	0	0	0	0;
	21	0	    0	    0	    -1000    0.96385    100	    1	0	    0	    0	0	0	0	0	0	0	0	0	0	0;
	22	0	    0	    1000     0	     0.97522    100	    1	1000    0	    0	0	0	0	0	0	0	0	0	0	0;
	22	0	    0	    0	    -1000    0.97522    100	    1	0	    0	    0	0	0	0	0	0	0	0	0	0	0;
	23	0	    0	    1000     0	     1.00268    100	    1	1000    0	    0	0	0	0	0	0	0	0	0	0	0;
	23	0	    0	    0	    -1000    1.00268    100	    1	0	    0	    0	0	0	0	0	0	0	0	0	0	0;
	24	5	   -8.33    300	    -300     0.992	    100 	1	5	    5   	0	0	0	0	0	0	0	0	0	0	0;%*****
	25	287.46  55.24	140	    -47      1.05	    100 	1	300     100 	0	0	0	0	0	0	0	0	0	0	0;
	26	314	    20.71   1000    -1000    1.015	    100 	1	350	    100   	0	0	0	0	0	0	0	0	0	0	0;
	27	8	    26.61   300	    -300     0.968	    100 	1	30	    8   	0	0	0	0	0	0	0	0	0	0	0;
	28	0	    0	    1000     0	     0.96147    100	    1	1000    0	    0	0	0	0	0	0	0	0	0	0	0;
	28	0	    0	    0	    -1000    0.96147    100	    1	0	    0	    0	0	0	0	0	0	0	0	0	0	0;
	29	0	    0	    1000     0	     0.96292    100	    1	1000    0	    0	0	0	0	0	0	0	0	0	0	0;
	29	0	    0	    0	    -1000    0.96292    100	    1	0	    0	    0	0	0	0	0	0	0	0	0	0	0;
	30	0	    0	    1000     0	     0.99153    100	    1	1000    0	    0	0	0	0	0	0	0	0	0	0	0;
	30	0	    0	    0	    -1000    0.99153    100	    1	0	    0	    0	0	0	0	0	0	0	0	0	0	0;
	31	8	    46.94   300	    -300     0.967	    100 	1	30	    8   	0	0	0	0	0	0	0	0	0	0	0;
	32	100	   -1.25    42	    -14      0.963	    100 	1	100	    25   	0	0	0	0	0	0	0	0	0	0	0;
	33	0	    0	    1000     0	     0.97367    100	    1	1000    0	    0	0	0	0	0	0	0	0	0	0	0;
	33	0	    0	    0	    -1000    0.97367    100	    1	0	    0	    0	0	0	0	0	0	0	0	0	0	0;
	34	8	    7.45    24	    -8	     0.991	    100 	1	30	    8   	0	0	0	0	0	0	0	0	0	0	0;
	35	0	    0	    1000     0	     0.98723    100	    1	1000    0	    0	0	0	0	0	0	0	0	0	0	0;
	35	0	    0	    0	    -1000    0.98723    100	    1	0	    0	    0	0	0	0	0	0	0	0	0	0	0;
	36	100	    21.49   24	    -8	     0.98693	100 	1	80	    80   	0	0	0	0	0	0	0	0	0	0	0;%*****
	37	0	    0	    1000     0	     0.99643    100	    1	1000    0	    0	0	0	0	0	0	0	0	0	0	0;
	37	0	    0	    0	    -1000    0.99643    100	    1	0	    0	    0	0	0	0	0	0	0	0	0	0	0;
	38	0	    0	    1000     0	     0.97176    100	    1	1000    0	    0	0	0	0	0	0	0	0	0	0	0;
	38	0	    0	    0	    -1000    0.97176    100	    1	0	    0	    0	0	0	0	0	0	0	0	0	0	0;
	39	0	    0	    1000     0	     0.97263    100	    1	1000    0	    0	0	0	0	0	0	0	0	0	0	0;
	39	0	    0	    0	    -1000    0.97263    100	    1	0	    0	    0	0	0	0	0	0	0	0	0	0	0;
	40	8	    47.29   300	    -300     0.97	    100 	1	30	    8   	0	0	0	0	0	0	0	0	0	0	0;
	41	0	    0	    1000     0	     0.96673    100	    1	1000    0	    0	0	0	0	0	0	0	0	0	0	0;
	41	0	    0	    0	    -1000    0.96673    100	    1	0	    0	    0	0	0	0	0	0	0	0	0	0	0;
	42	8	    60.57   300	    -300     0.985	    100 	1	30	    8   	0	0	0	0	0	0	0	0	0	0	0;
	43	0	    0	    1000     0	     0.98352    100	    1	1000    0	    0	0	0	0	0	0	0	0	0	0	0;
	43	0	    0	    0	    -1000    0.98352    100	    1	0	    0	    0	0	0	0	0	0	0	0	0	0	0;
	44	0	    0	    1000     0	     0.98913    100	    1	1000    0	    0	0	0	0	0	0	0	0	0	0	0;
	44	0	    0	    0	    -1000    0.98913    100	    1	0	    0	    0	0	0	0	0	0	0	0	0	0	0;
	45	0	    0	    1000     0	     0.98982    100	    1	1000    0	    0	0	0	0	0	0	0	0	0	0	0;
	45	0	    0	    0	    -1000    0.98982    100	    1	0	    0	    0	0	0	0	0	0	0	0	0	0	0;
	46	86.46  -6.93    100	    -100     1.005	    100 	1	86.46      86.46  	0	0	0	0	0	0	0	0	0	0	0;%*****
	47	0	    0	    1000     0	     1.01882    100	    1	1000    0	    0	0	0	0	0	0	0	0	0	0	0;
	47	0	    0	    0	    -1000    1.01882    100	    1	0	    0	    0	0	0	0	0	0	0	0	0	0	0;
	48	0	    0	    1000     0	     1.02103    100	    1	1000    0	    0	0	0	0	0	0	0	0	0	0	0;
	48	0	    0	    0	    -1000    1.02103    100	    1	0	    0	    0	0	0	0	0	0	0	0	0	0	0;
	49	204	    140.6   210	    -85      1.025	    100 	1	250	    50   	0	0	0	0	0	0	0	0	0	0	0;
	50	0	    0	    1000     0	     1.00272    100	    1	1000    0	    0	0	0	0	0	0	0	0	0	0	0;
	50	0	    0	    0	    -1000    1.00272    100	    1	0	    0	    0	0	0	0	0	0	0	0	0	0	0;
	51	0	    0	    1000     0	     0.96993    100	    1	1000    0	    0	0	0	0	0	0	0	0	0	0	0;
	51	0	    0	    0	    -1000    0.96993    100	    1	0	    0	    0	0	0	0	0	0	0	0	0	0	0;
	52	0	    0	    1000     0	     0.95996    100	    1	1000    0	    0	0	0	0	0	0	0	0	0	0	0;
	52	0	    0	    0	    -1000    0.95996    100	    1	0	    0	    0	0	0	0	0	0	0	0	0	0	0;
	53	0	    0	    1000     0	     0.94746    100	    1	1000    0	    0	0	0	0	0	0	0	0	0	0	0;
	53	0	    0	    0	    -1000    0.94746	100	    1	0	    0	    0	0	0	0	0	0	0	0	0	0	0;
	54	115.46  13.93   300	    -300     0.955	    100 	1	250     50 	    0	0	0	0	0	0	0	0	0	0	0;
	55	94	    18.19   23	    -8	     0.95542    100 	1	100  	25   	0	0	0	0	0	0	0	0	0	0	0;
	56	94.63   15	    15	    -8	     0.95671    100 	1	100 	25  	0	0	0	0	0	0	0	0	0	0	0;
	57	0	    0	    1000     0	     0.97334    100	    1	1000    0	    0	0	0	0	0	0	0	0	0	0	0;
	57	0	    0	    0	    -1000    0.97334    100	    1	0	    0	    0	0	0	0	0	0	0	0	0	0	0;
	58	0	    0	    1000     0	     0.96197    100	    1	1000    0	    0	0	0	0	0	0	0	0	0	0	0;
	58	0	    0	    0	    -1000    0.96197    100	    1	0	    0	    0	0	0	0	0	0	0	0	0	0	0;
	59	155	    76.83   180	    -60      0.985	    100 	1	200 	50   	0	0	0	0	0	0	0	0	0	0	0;
	60	0	    0	    1000     0	     0.99328    100	    1	1000    0	    0	0	0	0	0	0	0	0	0	0	0;
	60	0	    0	    0	    -1000    0.99328    100	    1	0	    0	    0	0	0	0	0	0	0	0	0	0	0;
	61	160	    44.97   300	    -100     0.995	    100 	1	200 	50   	0	0	0	0	0	0	0	0	0	0	0;
	62	71.68   14.32   20	    -20      0.998	    100 	1	100 	25  	0	0	0	0	0	0	0	0	0	0	0;
	63	0	    0	    1000     0	     0.97098    100	    1	1000    0	    0	0	0	0	0	0	0	0	0	0	0;
	63	0	    0	    0	    -1000    0.97098    100	    1	0	    0	    0	0	0	0	0	0	0	0	0	0	0;
	64	0	    0	    1000     0	     0.98518    100	    1	1000    0	    0	0	0	0	0	0	0	0	0	0	0;
	64	0	    0	    0	    -1000    0.98518    100	    1	0	    0	    0	0	0	0	0	0	0	0	0	0	0;
	65	391	    80.76   200	    -67      1.005	    100 	1	420 	100   	0	0	0	0	0	0	0	0	0	0	0;
	66	392	    2.1	    200	    -67      1.05	    100 	1	420	    100   	0	0	0	0	0	0	0	0	0	0	0;
	67	0	    0	    1000     0	     1.02022    100	    1	1000    0	    0	0	0	0	0	0	0	0	0	0	0;
	67	0	    0	    0	    -1000    1.02022    100	    1	0	    0	    0	0	0	0	0	0	0	0	0	0	0;
	68	0	    0	    1000     0	     1.00291    100	    1	1000    0	    0	0	0	0	0	0	0	0	0	0	0;
	68	0	    0	    0	    -1000    1.00291    100	    1	0	    0	    0	0	0	0	0	0	0	0	0	0	0;
	69	250 	5.12    99999   -99999   1.035	    100 	1	300  	80   	0	0	0	0	0	0	0	0	0	0	0;
	70	53.1    15.84   32	    -10      0.98493    100 	1	80      30   	0	0	0	0	0	0	0	0	0	0	0;
	71	0	    0	    1000     0	     0.98685    100	    1	1000    0	    0	0	0	0	0	0	0	0	0	0	0;
	71	0	    0	    0	    -1000    0.98685    100	    1	0	    0	    0	0	0	0	0	0	0	0	0	0	0;
	72	10	    11.07   100	    -100     0.98	    100 	1	10 	    10   	0	0	0	0	0	0	0	0	0	0	0;%*****
	73	5	    9.68    100	    -100     0.991	    100 	1	30 	    5   	0	0	0	0	0	0	0	0	0	0	0;
	74	5	    9	    9	    -6	     0.958	    100 	1	20 	    5   	0	0	0	0	0	0	0	0	0	0	0;
	75	0	    0	    1000     0	     0.97388    100	    1	1000    0	    0	0	0	0	0	0	0	0	0	0	0;
	75	0	    0	    0	    -1000    0.97388    100	    1	0	    0	    0	0	0	0	0	0	0	0	0	0	0;
	76	100	    23	    23	    -8	     0.943	    100 	1	100 	25   	0	0	0	0	0	0	0	0	0	0	0;
	77	75.8    54.25   70	    -20      1.006	    100 	1	100 	25   	0	0	0	0	0	0	0	0	0	0	0;
	78	0	    0	    1000     0	     1.01258    100	    1	1000    0	    0	0	0	0	0	0	0	0	0	0	0;
	78	0	    0	    0	    -1000    1.01258    100	    1	0	    0	    0	0	0	0	0	0	0	0	0	0	0;
	79	0	    0	    1000     0	     1.01625    100	    1	1000    0	    0	0	0	0	0	0	0	0	0	0	0;
	79	0	    0	    0	    -1000    1.01625    100	    1	0	    0	    0	0	0	0	0	0	0	0	0	0	0;
	80	250	    124.39  280	    -165     1.04	    100 	1	300 	150   	0	0	0	0	0	0	0	0	0	0	0;
	81	0	    0	    1000     0	     0.99518    100	    1	1000    0	    0	0	0	0	0	0	0	0	0	0	0;
	81	0	    0	    0	    -1000    0.99518    100	    1	0	    0	    0	0	0	0	0	0	0	0	0	0	0;
	82	59.22   0  	    9900    -9900    1  	    100 	1	59.22 	    59.22  	0	0	0	0	0	0	0	0	0	0	0;%*****
	83	0	    0	    1000     0	     0.99536    100	    1	1000    0	    0	0	0	0	0	0	0	0	0	0	0;
	83	0	    0	    0	    -1000    0.99536    100	    1	0	    0	    0	0	0	0	0	0	0	0	0	0	0;
	84	0	    0	    1000     0	     0.98687    100	    1	1000    0	    0	0	0	0	0	0	0	0	0	0	0;
	84	0	    0	    0	    -1000    0.98687    100	    1	0	    0	    0	0	0	0	0	0	0	0	0	0	0;
	85	10	    19.7   23	    -8	     0.985	    100 	1	30   	10   	0	0	0	0	0	0	0	0	0	0	0;
	86	0	    0	    1000     0	     0.9927	    100	    1	1000    0	    0	0	0	0	0	0	0	0	0	0	0;
	86	0	    0	    0	    -1000    0.9927	    100	    1	0	    0	    0	0	0	0	0	0	0	0	0	0	0;
	87	229.36  12.96   1000    -100     1.015	    100 	1	300 	100 	0	0	0	0	0	0	0	0	0	0	0;
	88	0	    0	    1000     0	     0.99121    100	    1	1000    0	    0	0	0	0	0	0	0	0	0	0	0;
	88	0	    0	    0	    -1000    0.99121    100	    1	0	    0	    0	0	0	0	0	0	0	0	0	0	0;
	89	155	   -7.06    300	    -210     1.005	    100 	1	200 	50  	0	0	0	0	0	0	0	0	0	0	0;
	90	8	    80.52   300	    -300     0.985	    100 	1	20 	    8   	0	0	0	0	0	0	0	0	0	0	0;
	91	20	   -13.02   100	    -100     0.98	    100 	1	50 	    20    	0	0	0	0	0	0	0	0	0	0	0;
	92	150	    7.05    9	    -3	     0.99	    100 	1	150 	150   	0	0	0	0	0	0	0	0	0	0	0;%*****
	93	0	    0	    1000     0	     0.99583    100	    1	1000    0	    0	0	0	0	0	0	0	0	0	0	0;
	93	0	    0	    0	    -1000    0.99583    100	    1	0	    0	    0	0	0	0	0	0	0	0	0	0	0;
	94	0	    0	    1000     0	     0.99686    100	    1	1000    0	    0	0	0	0	0	0	0	0	0	0	0;
	94	0	    0	    0	    -1000    0.99686    100	    1	0	    0	    0	0	0	0	0	0	0	0	0	0	0;
	95	0	    0	    1000     0	     0.98761    100	    1	1000    0	    0	0	0	0	0	0	0	0	0	0	0;
	95	0	    0	    0	    -1000    0.98761    100	    1	0	    0	    0	0	0	0	0	0	0	0	0	0	0;
	96	0	    0	    1000     0	     0.99965    100	    1	1000    0	    0	0	0	0	0	0	0	0	0	0	0;
	96	0	    0	    0	    -1000    0.99965    100	    1	0	    0	    0	0	0	0	0	0	0	0	0	0	0;
	97	0	    0	    1000     0	     1.01493    100	    1	1000    0	    0	0	0	0	0	0	0	0	0	0	0;
	97	0	    0	    0	    -1000    1.01493    100	    1	0	    0	    0	0	0	0	0	0	0	0	0	0	0;
	98	0	    0	    1000     0	     1.02353    100	    1	1000    0	    0	0	0	0	0	0	0	0	0	0	0;
	98	0	    0	    0	    -1000    1.02353    100	    1	0	    0	    0	0	0	0	0	0	0	0	0	0	0;
	99	217.81 -17.34   100	    -100     1.01	    100 	1	300 	100 	0	0	0	0	0	0	0	0	0	0	0;
	100	252	    114.77  155	    -50      1.017	    100 	1	300 	100   	0	0	0	0	0	0	0	0	0	0	0;
	101	0	    0	    1000     0	     0.99798    100	    1	1000    0	    0	0	0	0	0	0	0	0	0	0	0;
	101	0	    0	    0	    -1000    0.99798    100	    1	0	    0	    0	0	0	0	0	0	0	0	0	0	0;
	102	0	    0	    1000     0	     1.00002    100	    1	1000    0	    0	0	0	0	0	0	0	0	0	0	0;
	102	0	    0	    0	    -1000    1.00002    100	    1	0	    0	    0	0	0	0	0	0	0	0	0	0	0;
	103	20	    40	    40	    -15      1.01	    100 	1	20 	    8   	0	0	0	0	0	0	0	0	0	0	0;
	104	45.05   16.43   23	    -8	     0.971	    100 	1	100 	25  	0	0	0	0	0	0	0	0	0	0	0;
	105	50.78   5.18    23	    -8	     0.99412    100 	1	100 	25  	0	0	0	0	0	0	0	0	0	0	0;
	106	0	    0	    1000     0	     0.955	    100	    1	1000    0	    0	0	0	0	0	0	0	0	0	0	0;
	106	0	    0	    0	    -1000    0.955	    100	    1	0	    0	    0	0	0	0	0	0	0	0	0	0	0;
	107	8	    14.76   200	    -200     0.952	    100 	1	20 	    8   	0	0	0	0	0	0	0	0	0	0	0;
	108	0	    0	    1000     0	     0.98403    100	    1	1000    0	    0	0	0	0	0	0	0	0	0	0	0;
	108	0	    0	    0	    -1000    0.98403    100	    1	0	    0	    0	0	0	0	0	0	0	0	0	0	0;
	109	0	    0	    1000     0	     0.98011    100	    1	1000    0	    0	0	0	0	0	0	0	0	0	0	0;
	109	0	    0	    0	    -1000    0.98011    100	    1	0	    0	    0	0	0	0	0	0	0	0	0	0	0;
	110	25	    17.47   23	    -8	     0.97379    100 	1	50 	    25   	0	0	0	0	0	0	0	0	0	0	0;
	111	36	   -17.37   1000    -100     0.98	    100 	1	100  	25   	0	0	0	0	0	0	0	0	0	0	0;
	112	43.33   48.81   1000    -100     0.975	    100 	1	100 	25  	0	0	0	0	0	0	0	0	0	0	0;
	113	99.72   48.16   200	    -100     0.993	    100 	1	100 	25   0	0	0	0	0	0	0	0	0	0	0;
	114	0	    0	    1000     0	     0.96343    100	    1	1000    0	    0	0	0	0	0	0	0	0	0	0	0;
	114	0	    0	    0	    -1000    0.96343    100	    1	0	    0	    0	0	0	0	0	0	0	0	0	0	0;
	115	0	    0	    1000     0	     0.96296    100	    1	1000    0	    0	0	0	0	0	0	0	0	0	0	0;
	115	0	    0	    0	    -1000    0.96296    100	    1	0	    0	    0	0	0	0	0	0	0	0	0	0	0;
	116	25	    18.03   1000    -1000    1.005 	    100 	1	25 	    25   	0	0	0	0	0	0	0	0	0	0	0;%*****
    117	0	    0	    1000     0	     0.98241    100	    1	1000    0	    0	0	0	0	0	0	0	0	0	0	0;
	117	0	    0	    0	    -1000    0.98241    100	    1	0	    0	    0	0	0	0	0	0	0	0	0	0	0;
	118	0	    0	    1000     0	     0.95815    100	    1	1000    0	    0	0	0	0	0	0	0	0	0	0	0;
	118	0	    0	    0	    -1000    0.95815    100	    1	0	    0	    0	0	0	0	0	0	0	0	0	0	0;
];

%% branch data
%	fbus	tbus   r        x         b     rateA rateB rateC ratio	 angle status angmin	angmax
mpc.branch = [
	1	2    	0.0303	  0.0999	0.0254    115	115   115   0   	0	1	-360	360;
	1	3	    0.0129	  0.0424	0.01082   115   115   115	0   	0   1	-360	360;
	4	5   	0.00176	  0.00798	0.0021    200	200	  200  	0   	0	1	-360	360;
	3	5   	0.0241	  0.108	    0.0284    115	115   115	0   	0	1	-360	360;
	5	6   	0.0119	  0.054	    0.01426   115	115   115	0   	0	1	-360	360;
	6	7   	0.00459	  0.0208	0.0055    115	115   115	0	    0	1	-360	360;
	8	9   	0.00244	  0.0305	1.162     200	200	  200	0	    0	1	-360	360;
	8	5    	0	      0.0267	0         200	200	  200 	0.985	0	1	-360	360;
	9	10  	0.00258	  0.0322	1.23      200	200	  200	0	    0	1	-360	360;
	4	11  	0.0209	  0.0688	0.01748   115	115   115 	0	    0	1	-360	360;
	5	11  	0.0203	  0.0682	0.01738   115	115   115	0   	0	1	-360	360;
	11	12  	0.00595	  0.0196	0.00502   115	115   115	0   	0	1	-360	360;
	2	12  	0.0187	  0.0616	0.01572   115	115   115	0   	0	1	-360	360;
	3	12  	0.0484	  0.16	    0.0406    115	115   115	0       0	1	-360	360;
	7	12  	0.00862	  0.034	    0.00874   115	115   115	0   	0	1	-360	360;
	11	13  	0.02225	  0.0731	0.01876   115	115   115	0   	0	1	-360	360;
	12	14  	0.0215	  0.0707	0.01816   115	115   115	0   	0	1	-360	360;
	13	15  	0.0744	  0.2444	0.06268   115	115   115   0   	0	1	-360	360;
	14	15  	0.0595	  0.195	    0.0502    115	115   115	0    	0	1	-360	360;
	12	16  	0.0212	  0.0834	0.0214    115	115   115	0   	0	1	-360	360;
	15	17  	0.0132	  0.0437	0.0444    200	200	  200	0   	0	1	-360	360;
	16	17  	0.0454	  0.1801	0.0466    115	115   115	0   	0	1	-360	360;
	17	18  	0.0123	  0.0505	0.01298   115	115   115  0	   	0   1	-360	360;
	18	19  	0.01119	  0.0493	0.01142   115	115   115	0   	0	1	-360	360;
	19	20	    0.0252	  0.117	    0.0298    115	115   115	0   	0	1	-360	360;
	15	19  	0.012	  0.0394	0.0101    115	115   115	0   	0	1	-360	360;
	20	21  	0.0183	  0.0849	0.0216    115	115   115	0   	0	1	-360	360;
	21	22  	0.0209	  0.097	    0.0246    115	115   115	0   	0	1	-360	360;
	22	23  	0.0342	  0.159	    0.0404    115	115   115 	0   	0	1	-360	360;
	23	24  	0.0135	  0.0492	0.0498    115	115   115  	0   	0	1	-360	360;
	23	25  	0.0156	  0.08	    0.0864    200	200	  200 	0   	0	1	-360	360;
	26	25  	0     	  0.0382	0         200	200	  200	0.96   	0	1	-360	360;
	25	27  	0.0318	  0.163	    0.1764    200	200	  200  	0   	0	1	-360	360;
	27	28  	0.01913	  0.0855	0.0216    115	115   115  	0   	0	1	-360	360;
	28	29  	0.0237	  0.0943	0.0238    115	115   115 	0   	0	1	-360	360;
	30	17  	0	      0.0388	0         200	200	  200  	0.96    0	1	-360	360;
	8	30  	0.00431	  0.0504	0.514     115	115   115	0   	0	1	-360	360;
	26	30  	0.00799	  0.086	    0.908     200	200	  200  	0   	0	1	-360	360;
	17	31  	0.0474	  0.1563	0.0399    115	115   115 	0   	0	1	-360	360;
	29	31  	0.0108	  0.0331	0.0083    115	115   115	0   	0	1	-360	360;
	23	32  	0.0317	  0.1153	0.1173    115	115   115  	0   	0	1	-360	360;
	31	32  	0.0298	  0.0985	0.0251    115	115   115	0   	0	1	-360	360;
	27	32  	0.0229	  0.0755	0.01926   115	115   115 	0   	0	1	-360	360;
	15	33  	0.038 	  0.1244	0.03194   115	115   115	0   	0	1	-360	360;
	19	34  	0.0752	  0.247	    0.0632    115	115   115  	0   	0	1	-360	360;
	35	36  	0.00224	  0.0102	0.00268   115	115   115 	0   	0	1	-360	360;
	35	37  	0.011	  0.0497	0.01318   115	115   115	0   	0	1	-360	360;
	33	37  	0.0415 	  0.142	    0.0366    115	115   115  	0   	0	1	-360	360;
	34	36  	0.00871	  0.0268	0.00568   115	115   115  	0   	0	1	-360	360;
	34	37  	0.00256	  0.0094	0.00984   200	200	  200  	0   	0	1	-360	360;
	38	37  	0	      0.0375	0         200	200	  200	0.935   0	1	-360	360;
	37	39  	0.0321	  0.106	    0.027     115	115   115 	0   	0	1	-360	360;